GW	182	21023883	1	181
177737	61443	31432	19405	13539	10124	7651	6032	4974	3961	3540	2907	2601	2192	1904	1727	1524	1370	1216	1047	1037	946	921	824	744	676	647	616	526	578	540	501	452	449	394	344	353	349	317	321	283	279	249	260	254	236	200	224	198	198	187	181	167	171	173	155	152	138	144	107	134	140	97	99	109	122	88	111	104	100	83	89	90	84	84	91	72	87	60	62	61	64	51	66	78	51	57	47	45	50	56	50	46	42	51	46	45	40	35	36	36	41	30	40	30	33	25	35	24	28	25	30	35	30	35	38	21	27	33	30	32	22	21	31	14	18	14	19	26	11	12	14	26	20	21	10	14	12	21	24	20	18	15	17	15	8	6	13	9	16	18	14	8	5	12	10	8	9	7	6	10	11	9	8	5	9	9	10	9	9	9	6	11	14	8	11	9	8	9	8	14
