GW	182	0	1	181
265366	95360	50194	31770	22330	17021	13203	10615	8882	7139	6477	5395	4828	4162	3640	3352	2986	2697	2517	2250	2126	1909	1861	1712	1602	1455	1405	1343	1216	1221	1229	1096	1019	1029	941	852	811	844	761	815	730	701	660	683	670	640	589	618	573	534	522	535	484	469	493	456	447	459	471	401	412	413	330	348	355	370	340	347	346	337	343	308	301	349	306	334	289	309	269	292	259	291	262	295	258	280	275	260	252	250	266	257	251	271	258	252	230	223	213	249	230	250	229	225	210	238	210	256	209	241	230	244	229	233	229	246	255	243	231	252	239	226	248	240	206	275	232	248	280	241	246	249	274	288	273	263	274	260	303	306	305	315	326	309	305	329	322	350	331	383	403	408	432	418	470	475	487	492	552	566	549	634	622	713	733	816	966	941	1057	1227	1375	1552	1774	2176	2646	3189	4073	5480	8022	13974	34617
